/*--------------------------------*- C++ -*----------------------------------*\
| =========                 |                                                 |
| \\      /  F ield         | foam-extend: Open Source CFD                    |
|  \\    /   O peration     | Version:     4.0                                |
|   \\  /    A nd           | Web:         http://www.foam-extend.org         |
|    \\/     M anipulation  |                                                 |
\*---------------------------------------------------------------------------*/
FoamFile
{
    version     2.0;
    format      ascii;
    class       dictionary;
    location    "constant";
    object      wellProperties;
}
// * * * * * * * * * * * * * * * * * * * * * * * * * * * * * * * * * * * * * //

wellModel peaceman;

wells
(
    aWell
    {
        orientation   vertical;
        operationMode production;
        radius 1;
        perforations
        (
            labelToCell { value  (0 1); }
        );
        imposedDrives
        (
            water.rate
            {
                fileName "wRate.dat";
                outOfBounds warn;
            }
        );
    }
);


// ************************************************************************* //
